data_loen
_symmetry_cell_setting triclinic
_symmetry_space_group_name_H-M 'P 1'
loop_
   _symmetry_equiv_pos_as_xyz
              X,Y,Z
_cell_length_a 15.2074
_cell_length_b 15.2074
_cell_length_c 16.4925
_cell_angle_alpha 90
_cell_angle_beta 90
_cell_angle_gamma 90
loop_
   _atom_site_label
   _atom_site_type_symbol
   _atom_site_fract_x
   _atom_site_fract_y
   _atom_site_fract_z
   si1_1   Si     0.999977     0.250894     0.412384
   si1_1   Si     0.999977     0.000646     0.743188
   si1_1   Si     0.999977     0.749625     0.743139
   si1_1   Si     0.999977     0.500646     0.743494
   si1_1   Si     0.999977     0.624762     0.495302
   si1_1   Si     0.999977     0.874805     0.496450
   si1_1   Si     0.999977     0.126486     0.496450
   si1_1   Si     0.999977     0.376530     0.495302
   si1_1   Si     0.999977     0.877675     0.162619
   si1_1   Si     0.999977     0.246350     0.077744
   si1_1   Si     0.999977     0.754941     0.077744
   si1_1   Si     0.999977     0.500646     0.078326
   si1_1   Si     0.999977     0.123616     0.162619
   si1_1   Si     0.999977     0.372299     0.156912
   si1_1   Si     0.999977     0.628992     0.156912
   si1_1   Si     0.999977     0.000646     0.414517
   si1_1   Si     0.999977     0.625773     0.827639
   si1_1   Si     0.999977     0.750397     0.412384
   si1_1   Si     0.999977     0.251666     0.743139
   si1_1   Si     0.999977     0.500646     0.409519
   si1_1   Si     0.999977     0.875818     0.826026
   si1_1   Si     0.999977     0.000646     0.078852
   si1_1   Si     0.999977     0.125474     0.826026
   si1_1   Si     0.999977     0.375519     0.827639
   si1_1   Si     0.116104     0.500646     0.316932
   si1_1   Si     0.122988     0.249486     0.327073
   si1_1   Si     0.123030     0.877343     0.911008
   si1_1   Si     0.122988     0.751805     0.327073
   si1_1   Si     0.122804     0.247192     0.994611
   si1_1   Si     0.123030     0.123948     0.911008
   si1_1   Si     0.121878     0.373746     0.914529
   si1_1   Si     0.121857     0.628888     0.240964
   si1_1   Si     0.122804     0.754099     0.994611
   si1_1   Si     0.121878     0.627545     0.914529
   si1_1   Si     0.123347     0.500646     0.994843
   si1_1   Si     0.121857     0.372403     0.240964
   si1_1   Si     0.125779     0.874843     0.578853
   si1_1   Si     0.128056     0.500646     0.661813
   si1_1   Si     0.123279     0.877593     0.246697
   si1_1   Si     0.122947     0.000646     0.995086
   si1_1   Si     0.127817     0.376825     0.576632
   si1_1   Si     0.125818     0.000646     0.661255
   si1_1   Si     0.125779     0.126448     0.578853
   si1_1   Si     0.126874     0.251876     0.661254
   si1_1   Si     0.126874     0.749415     0.661254
   si1_1   Si     0.127817     0.624466     0.576632
   si1_1   Si     0.124805     0.000646     0.331678
   si1_1   Si     0.123279     0.123698     0.246697
   si1_1   Si     0.239690     0.500646     0.393438
   si1_1   Si     0.241863     0.379133     0.479312
   si1_1   Si     0.241863     0.622159     0.479312
   si1_1   Si     0.245318     0.628858     0.157143
   si1_1   Si     0.242705     0.500646     0.758249
   si1_1   Si     0.245318     0.372434     0.157143
   si1_1   Si     0.247812     0.249794     0.750136
   si1_1   Si     0.248818     0.123657     0.830632
   si1_1   Si     0.249125     0.752811     0.407568
   si1_1   Si     0.247812     0.751498     0.750136
   si1_1   Si     0.248818     0.877635     0.830632
   si1_1   Si     0.247449     0.628441     0.835338
   si1_1   Si     0.245681     0.000646     0.079961
   si1_1   Si     0.250226     0.000646     0.745321
   si1_1   Si     0.250997     0.000646     0.414566
   si1_1   Si     0.246523     0.123473     0.163094
   si1_1   Si     0.245468     0.755154     0.078852
   si1_1   Si     0.246523     0.877818     0.163094
   si1_1   Si     0.249125     0.248481     0.407568
   si1_1   Si     0.245468     0.246137     0.078852
   si1_1   Si     0.247449     0.372850     0.835338
   si1_1   Si     0.246830     0.500646     0.078770
   si1_1   Si     0.251207     0.873748     0.496450
   si1_1   Si     0.251207     0.127543     0.496450
   si1_1   Si     0.362203     0.500646     0.306355
   si1_1   Si     0.370954     0.370559     0.235658
   si1_1   Si     0.372181     0.248117     0.322367
   si1_1   Si     0.371735     0.878766     0.916740
   si1_1   Si     0.369890     0.629669     0.922046
   si1_1   Si     0.370954     0.630733     0.235658
   si1_1   Si     0.372181     0.753174     0.322367
   si1_1   Si     0.369890     0.371623     0.922046
   si1_1   Si     0.371734     0.122526     0.916740
   si1_1   Si     0.375861     0.000646     0.662402
   si1_1   Si     0.373013     0.500646     0.999066
   si1_1   Si     0.371765     0.245987     0.000561
   si1_1   Si     0.373078     0.122546     0.243176
   si1_1   Si     0.373078     0.878745     0.243176
   si1_1   Si     0.378464     0.242532     0.678392
   si1_1   Si     0.376157     0.872806     0.581072
   si1_1   Si     0.371631     0.000646     0.000792
   si1_1   Si     0.376157     0.128486     0.581072
   si1_1   Si     0.371765     0.755305     0.000561
   si1_1   Si     0.378464     0.758759     0.678392
   si1_1   Si     0.374850     0.000646     0.330065
   si1_1   Si     0.378172     0.576849     0.517459
   si1_1   Si     0.378172     0.424442     0.517459
   si1_1   Si     0.383141     0.500646     0.712368
   si1_1   Si     0.423774     0.622450     0.640243
   si1_1   Si     0.423774     0.378841     0.640243
   si1_1   Si     0.499977     0.617482     0.445334
   si1_1   Si     0.499977     0.753793     0.078934
   si1_1   Si     0.499977     0.757918     0.399455
   si1_1   Si     0.499977     0.383810     0.445334
   si1_1   Si     0.499977     0.884518     0.840772
   si1_1   Si     0.499977     0.243373     0.399455
   si1_1   Si     0.499977     0.373682     0.158639
   si1_1   Si     0.499977     0.128725     0.495891
   si1_1   Si     0.499977     0.240360     0.764266
   si1_1   Si     0.499977     0.760932     0.764266
   si1_1   Si     0.499977     0.247499     0.078934
   si1_1   Si     0.499977     0.116773     0.840772
   si1_1   Si     0.499977     0.500646     0.078852
   si1_1   Si     0.499977     0.638418     0.851348
   si1_1   Si     0.499977     0.362873     0.851348
   si1_1   Si     0.499977     0.000646     0.414210
   si1_1   Si     0.499977     0.124016     0.162861
   si1_1   Si     0.499977     0.872567     0.495891
   si1_1   Si     0.499977     0.877276     0.162861
   si1_1   Si     0.499977     0.500646     0.797251
   si1_1   Si     0.499977     0.000646     0.748186
   si1_1   Si     0.499977     0.627610     0.158639
   si1_1   Si     0.499977     0.000646     0.079378
   si1_1   Si     0.499977     0.500646     0.360452
   si1_1   Si     0.576180     0.622450     0.640243
   si1_1   Si     0.576180     0.378841     0.640243
   si1_1   Si     0.616813     0.500646     0.712368
   si1_1   Si     0.621490     0.242532     0.678392
   si1_1   Si     0.623797     0.128486     0.581072
   si1_1   Si     0.623797     0.872806     0.581072
   si1_1   Si     0.625104     0.000646     0.330065
   si1_1   Si     0.628323     0.000646     0.000792
   si1_1   Si     0.621490     0.758759     0.678392
   si1_1   Si     0.621781     0.576849     0.517459
   si1_1   Si     0.621781     0.424442     0.517459
   si1_1   Si     0.624093     0.000646     0.662402
   si1_1   Si     0.628220     0.878766     0.916740
   si1_1   Si     0.628189     0.245987     0.000561
   si1_1   Si     0.627773     0.753174     0.322367
   si1_1   Si     0.628220     0.122526     0.916740
   si1_1   Si     0.627773     0.248117     0.322367
   si1_1   Si     0.626877     0.122546     0.243176
   si1_1   Si     0.629000     0.370559     0.235658
   si1_1   Si     0.626941     0.500646     0.999066
   si1_1   Si     0.630064     0.629669     0.922046
   si1_1   Si     0.630064     0.371623     0.922046
   si1_1   Si     0.629000     0.630733     0.235658
   si1_1   Si     0.626876     0.878745     0.243176
   si1_1   Si     0.628189     0.755305     0.000561
   si1_1   Si     0.637750     0.500646     0.306355
   si1_1   Si     0.754486     0.246137     0.078852
   si1_1   Si     0.750829     0.248481     0.407568
   si1_1   Si     0.754486     0.755154     0.078852
   si1_1   Si     0.748747     0.873748     0.496450
   si1_1   Si     0.751136     0.877634     0.830632
   si1_1   Si     0.748956     0.000646     0.414566
   si1_1   Si     0.753431     0.877818     0.163094
   si1_1   Si     0.753431     0.123473     0.163094
   si1_1   Si     0.754273     0.000646     0.079961
   si1_1   Si     0.751136     0.123657     0.830632
   si1_1   Si     0.748747     0.127543     0.496450
   si1_1   Si     0.750829     0.752811     0.407568
   si1_1   Si     0.749728     0.000646     0.745321
   si1_1   Si     0.752142     0.751498     0.750136
   si1_1   Si     0.752142     0.249794     0.750136
   si1_1   Si     0.754636     0.372434     0.157143
   si1_1   Si     0.753124     0.500646     0.078770
   si1_1   Si     0.752505     0.372850     0.835338
   si1_1   Si     0.754636     0.628857     0.157143
   si1_1   Si     0.752505     0.628441     0.835338
   si1_1   Si     0.757249     0.500646     0.758249
   si1_1   Si     0.758091     0.379133     0.479312
   si1_1   Si     0.758091     0.622159     0.479312
   si1_1   Si     0.760263     0.500646     0.393438
   si1_1   Si     0.871898     0.500646     0.661813
   si1_1   Si     0.872137     0.624466     0.576632
   si1_1   Si     0.872137     0.376825     0.576632
   si1_1   Si     0.873080     0.749415     0.661254
   si1_1   Si     0.873080     0.251876     0.661254
   si1_1   Si     0.874175     0.874843     0.578853
   si1_1   Si     0.874136     0.000646     0.661255
   si1_1   Si     0.876924     0.877343     0.911008
   si1_1   Si     0.876924     0.123948     0.911008
   si1_1   Si     0.875149     0.000646     0.331678
   si1_1   Si     0.877007     0.000646     0.995086
   si1_1   Si     0.876675     0.877593     0.246697
   si1_1   Si     0.876966     0.751805     0.327073
   si1_1   Si     0.876966     0.249486     0.327073
   si1_1   Si     0.874175     0.126448     0.578853
   si1_1   Si     0.876607     0.500646     0.994843
   si1_1   Si     0.876675     0.123698     0.246697
   si1_1   Si     0.877150     0.247192     0.994611
   si1_1   Si     0.877150     0.754099     0.994611
   si1_1   Si     0.878076     0.627545     0.914529
   si1_1   Si     0.878076     0.373746     0.914529
   si1_1   Si     0.878097     0.372403     0.240964
   si1_1   Si     0.878097     0.628888     0.240964
   si1_1   Si     0.883850     0.500646     0.316932
