data_loen
_symmetry_cell_setting cubic
_symmetry_space_group_name_H-M 'P 1'
loop_
   _symmetry_equiv_pos_as_xyz
              X,Y,Z
_cell_length_a 3.84008479658978
_cell_length_b 3.84008479658978
_cell_length_c 3.84008479658978
_cell_angle_alpha 60
_cell_angle_beta 60
_cell_angle_gamma 60
loop_
   _atom_site_label
   _atom_site_type_symbol
   _atom_site_fract_x
   _atom_site_fract_y
   _atom_site_fract_z
   si1_1   Si     0.000000     0.000000     0.000000
   si1_1   Si     0.250000     0.250000     0.250000
