data_loen
_symmetry_cell_setting triclinic
_symmetry_space_group_name_H-M 'P 1'
loop_
   _symmetry_equiv_pos_as_xyz
              X,Y,Z
_cell_length_a 12.5921
_cell_length_b 7.5933
_cell_length_c 36.6525000727387
_cell_angle_alpha 90
_cell_angle_beta 89.6564000013182
_cell_angle_gamma 90
loop_
   _atom_site_label
   _atom_site_type_symbol
   _atom_site_fract_x
   _atom_site_fract_y
   _atom_site_fract_z
   si1_1   Si     0.594960     0.250000     0.823710
   si1_1   Si     0.594960     0.750000     0.823710
   si1_1   Si     0.038456     0.250000     0.275693
   si1_1   Si     0.038456     0.750000     0.275693
   si1_1   Si     0.358691     0.000000     0.262784
   si1_1   Si     0.358691     0.500000     0.262784
   si1_1   Si     0.313373     0.250000     0.230155
   si1_1   Si     0.313373     0.750000     0.230155
   si1_1   Si     0.131220     0.250000     0.220500
   si1_1   Si     0.131220     0.750000     0.220500
   si1_1   Si     0.086666     0.000000     0.187332
   si1_1   Si     0.086666     0.500000     0.187332
   si1_1   Si     0.405759     0.250000     0.175408
   si1_1   Si     0.405759     0.750000     0.175408
   si1_1   Si     0.360562     0.000000     0.142656
   si1_1   Si     0.360562     0.500000     0.142656
   si1_1   Si     0.178907     0.000000     0.132220
   si1_1   Si     0.178907     0.500000     0.132220
   si1_1   Si     0.134151     0.250000     0.099173
   si1_1   Si     0.134151     0.750000     0.099173
   si1_1   Si     0.452911     0.000000     0.087809
   si1_1   Si     0.452911     0.500000     0.087809
   si1_1   Si     0.407940     0.250000     0.054927
   si1_1   Si     0.407940     0.750000     0.054927
   si1_1   Si     0.226502     0.250000     0.044170
   si1_1   Si     0.226502     0.750000     0.044170
   si1_1   Si     0.181625     0.000000     0.011042
   si1_1   Si     0.181625     0.500000     0.011042
   si1_1   Si     0.540635     0.000000     0.273846
   si1_1   Si     0.540635     0.500000     0.273846
   si1_1   Si     0.857462     0.250000     0.264855
   si1_1   Si     0.857462     0.750000     0.264855
   si1_1   Si     0.813030     0.000000     0.231512
   si1_1   Si     0.813030     0.500000     0.231512
   si1_1   Si     0.632470     0.000000     0.219156
   si1_1   Si     0.632470     0.500000     0.219156
   si1_1   Si     0.587141     0.250000     0.186463
   si1_1   Si     0.587141     0.750000     0.186463
   si1_1   Si     0.905301     0.000000     0.176344
   si1_1   Si     0.905301     0.500000     0.176344
   si1_1   Si     0.860611     0.250000     0.143193
   si1_1   Si     0.860611     0.750000     0.143193
   si1_1   Si     0.679488     0.250000     0.131726
   si1_1   Si     0.679488     0.750000     0.131726
   si1_1   Si     0.634206     0.000000     0.098943
   si1_1   Si     0.634206     0.500000     0.098943
   si1_1   Si     0.952826     0.250000     0.088135
   si1_1   Si     0.952826     0.750000     0.088135
   si1_1   Si     0.907965     0.000000     0.055085
   si1_1   Si     0.907965     0.500000     0.055085
   si1_1   Si     0.726502     0.000000     0.044170
   si1_1   Si     0.726502     0.500000     0.044170
   si1_1   Si     0.681625     0.250000     0.011042
   si1_1   Si     0.681625     0.750000     0.011042
   si1_1   Si     0.000000     0.000000     0.000000
   si1_1   Si     0.000000     0.500000     0.000000
   si1_1   Si     0.955124     0.250000     0.966873
   si1_1   Si     0.955124     0.750000     0.966873
   si1_1   Si     0.273685     0.000000     0.956116
   si1_1   Si     0.273685     0.500000     0.956116
   si1_1   Si     0.228714     0.250000     0.923233
   si1_1   Si     0.228714     0.750000     0.923233
   si1_1   Si     0.047419     0.250000     0.912100
   si1_1   Si     0.047419     0.750000     0.912100
   si1_1   Si     0.002137     0.000000     0.879316
   si1_1   Si     0.002137     0.500000     0.879316
   si1_1   Si     0.321064     0.250000     0.868387
   si1_1   Si     0.321064     0.750000     0.868387
   si1_1   Si     0.275866     0.000000     0.835635
   si1_1   Si     0.275866     0.500000     0.835635
   si1_1   Si     0.094484     0.000000     0.824579
   si1_1   Si     0.094484     0.500000     0.824579
   si1_1   Si     0.049155     0.250000     0.791887
   si1_1   Si     0.049155     0.750000     0.791887
   si1_1   Si     0.368253     0.000000     0.780887
   si1_1   Si     0.368253     0.500000     0.780887
   si1_1   Si     0.322934     0.250000     0.748259
   si1_1   Si     0.322934     0.750000     0.748259
   si1_1   Si     0.140990     0.250000     0.737197
   si1_1   Si     0.140990     0.750000     0.737197
   si1_1   Si     0.500000     0.250000     0.000000
   si1_1   Si     0.500000     0.750000     0.000000
   si1_1   Si     0.455124     0.000000     0.966873
   si1_1   Si     0.455124     0.500000     0.966873
   si1_1   Si     0.773661     0.250000     0.955958
   si1_1   Si     0.773661     0.750000     0.955958
   si1_1   Si     0.728799     0.000000     0.922908
   si1_1   Si     0.728799     0.500000     0.922908
   si1_1   Si     0.547474     0.000000     0.911870
   si1_1   Si     0.547474     0.500000     0.911870
   si1_1   Si     0.502719     0.250000     0.878822
   si1_1   Si     0.502719     0.750000     0.878822
   si1_1   Si     0.821015     0.000000     0.867849
   si1_1   Si     0.821015     0.500000     0.867849
   si1_1   Si     0.776324     0.250000     0.834699
   si1_1   Si     0.776324     0.750000     0.834699
   si1_1   Si     0.550406     0.000000     0.790542
   si1_1   Si     0.550406     0.500000     0.790542
   si1_1   Si     0.868596     0.250000     0.779531
   si1_1   Si     0.868596     0.750000     0.779531
   si1_1   Si     0.824164     0.000000     0.746188
   si1_1   Si     0.824164     0.500000     0.746188
   si1_1   Si     0.643169     0.000000     0.735350
   si1_1   Si     0.643169     0.500000     0.735350
   si1_1   Si     0.117340     0.000000     0.477272
   si1_1   Si     0.117340     0.500000     0.477272
   si1_1   Si     0.018507     0.250000     0.460648
   si1_1   Si     0.018507     0.750000     0.460648
   si1_1   Si     0.267452     0.000000     0.438580
   si1_1   Si     0.267452     0.500000     0.438580
   si1_1   Si     0.228944     0.250000     0.404172
   si1_1   Si     0.228944     0.750000     0.404172
   si1_1   Si     0.044650     0.250000     0.397640
   si1_1   Si     0.044650     0.750000     0.397640
   si1_1   Si     0.992939     0.000000     0.365539
   si1_1   Si     0.992939     0.500000     0.365539
   si1_1   Si     0.311701     0.250000     0.348504
   si1_1   Si     0.311701     0.750000     0.348504
   si1_1   Si     0.263886     0.000000     0.317005
   si1_1   Si     0.263886     0.500000     0.317005
   si1_1   Si     0.081567     0.000000     0.309062
   si1_1   Si     0.081567     0.500000     0.309062
   si1_1   Si     0.537163     0.250000     0.471822
   si1_1   Si     0.537163     0.750000     0.471822
   si1_1   Si     0.451360     0.000000     0.449557
   si1_1   Si     0.451360     0.500000     0.449557
   si1_1   Si     0.710622     0.250000     0.444747
   si1_1   Si     0.710622     0.750000     0.444747
   si1_1   Si     0.708564     0.000000     0.407864
   si1_1   Si     0.708564     0.500000     0.407864
   si1_1   Si     0.530524     0.000000     0.392095
   si1_1   Si     0.530524     0.500000     0.392095
   si1_1   Si     0.490456     0.250000     0.359447
   si1_1   Si     0.490456     0.750000     0.359447
   si1_1   Si     0.810544     0.000000     0.354558
   si1_1   Si     0.810544     0.500000     0.354558
   si1_1   Si     0.767069     0.250000     0.320531
   si1_1   Si     0.767069     0.750000     0.320531
   si1_1   Si     0.587484     0.250000     0.306299
   si1_1   Si     0.587484     0.750000     0.306299
   si1_1   Si     0.094142     0.000000     0.704743
   si1_1   Si     0.094142     0.500000     0.704743
   si1_1   Si     0.417739     0.250000     0.694038
   si1_1   Si     0.417739     0.750000     0.694038
   si1_1   Si     0.369924     0.000000     0.662539
   si1_1   Si     0.369924     0.500000     0.662539
   si1_1   Si     0.191170     0.000000     0.651596
   si1_1   Si     0.191170     0.500000     0.651596
   si1_1   Si     0.151102     0.250000     0.618948
   si1_1   Si     0.151102     0.750000     0.618948
   si1_1   Si     0.452682     0.000000     0.606871
   si1_1   Si     0.452682     0.500000     0.606871
   si1_1   Si     0.414174     0.250000     0.572462
   si1_1   Si     0.414174     0.750000     0.572462
   si1_1   Si     0.230266     0.250000     0.561485
   si1_1   Si     0.230266     0.750000     0.561485
   si1_1   Si     0.144462     0.000000     0.539220
   si1_1   Si     0.144462     0.500000     0.539220
   si1_1   Si     0.600058     0.250000     0.701980
   si1_1   Si     0.600058     0.750000     0.701980
   si1_1   Si     0.914557     0.000000     0.690512
   si1_1   Si     0.914557     0.500000     0.690512
   si1_1   Si     0.871082     0.250000     0.656484
   si1_1   Si     0.871082     0.750000     0.656484
   si1_1   Si     0.688686     0.250000     0.645504
   si1_1   Si     0.688686     0.750000     0.645504
   si1_1   Si     0.636976     0.000000     0.613402
   si1_1   Si     0.636976     0.500000     0.613402
   si1_1   Si     0.973061     0.250000     0.603178
   si1_1   Si     0.973061     0.750000     0.603178
   si1_1   Si     0.971003     0.000000     0.566296
   si1_1   Si     0.971003     0.500000     0.566296
   si1_1   Si     0.663118     0.000000     0.550394
   si1_1   Si     0.663118     0.500000     0.550394
   si1_1   Si     0.564285     0.250000     0.533770
   si1_1   Si     0.564285     0.750000     0.533770
   si1_1   Si     0.833391     0.000000     0.523890
   si1_1   Si     0.833391     0.500000     0.523890
   si1_1   Si     0.848234     0.250000     0.487153
   si1_1   Si     0.848234     0.750000     0.487153
